/*--------------------------------*- C++ -*----------------------------------*  =========                 |
  \      /  F ield         | OpenFOAM: The Open Source CFD Toolbox
   \    /   O peration     | Website:  https://openfoam.org
    \  /    A nd           | Version:  12
     \/     M anipulation  |
*---------------------------------------------------------------------------*/
FoamFile
{
    format      ascii;
    class       dictionary;
    object      blockMeshDict;
}
// * * * * * * * * * * * * * * * * * * * * * * * * * * * * * * * * * * * * * //

convertToMeters 1;

backgroundMesh
{
    xMin     -9.433;
    xMax     7.547;
    yMin     -7.044;
    yMax     0.0;
    zMin     -16.0;
    zMid1    -1.0;
    zMid2     0.131;
    zMid3     0.187;
    zMid4     0.243;
    zMid5     1.543;
    zMax      1.767;

    /*xCells   42;
    yCells   19;

    zCells1  10;
    zCells2  8;
    zCells3  32;
    zCells4  48;
    zCells5  40;
    zCells6  8;
    */

    xCells   24;
    yCells   7;

    zCells1  20;
    zCells2  20;
    zCells3  4;
    zCells4  4;
    zCells5  20 * (40/50);
    zCells6  20 * (20/50);
}

vertices
(
    (-9.433 -7.044 -4.417) // 0
    (7.547 -7.044 -4.417) // 1
    (7.547 0.0 -4.417) // 2
    (-9.433 0.0 -4.417) // 3

    (-9.433 -7.044 -1.0) // 4
    (7.547 -7.044 -1.0) // 5
    (7.547 0.0 -1.0) // 6
    (-9.433 0.0 -1.0) // 7

    (-9.433 -7.044 0.131) // 8
    (7.547 -7.044 0.131) // 9
    (7.547 0.0 0.131) // 10
    (-9.433 0.0 0.131) // 11

    (-9.433 -7.044 0.187) // 12
    (7.547 -7.044 0.187) // 13
    (7.547 0.0 0.187) // 14
    (-9.433 0.0 0.187) // 15

    (-9.433 -7.044 0.243) // 16
    (7.547 -7.044 0.243) // 17
    (7.547 0.0 0.243) // 18
    (-9.433 0.0 0.243) // 19

    (-9.433 -7.044 1.039) // 20
    (7.547 -7.044 1.039) // 21
    (7.547 0.0 1.039) // 22
    (-9.433 0.0 1.039) // 23

    (-9.433 -7.044 1.767) // 24
    (7.547 -7.044 1.767) // 25
    (7.547 0.0 1.767) // 26
    (-9.433 0.0 1.767) // 27

);

blocks
(
    // Block 1
    hex (0 1 2 3 4 5 6 7) 
    (
        24
        7
        20
    ) 
    simpleGrading (1 1 0.05)
    
    // Block 2
    hex (4 5 6 7 8 9 10 11) 
    (
        24
        7
        20
    ) 
    simpleGrading (1 1 1)
    
    // Block 3
    hex (8 9 10 11 12 13 14 15) 
    (
        24
        7
        1
    ) 
    simpleGrading (1 1 1)
    
    // Block 4
    hex (12 13 14 15 16 17 18 19) 
    (
        24
        7
        1
    ) 
    simpleGrading (1 1 1)
    
    // Block 6
    hex (16 17 18 19 20 21 22 23) 
    (
        24
        7
        16
    ) 
    simpleGrading (1 1 1)
    
    // Block 7
    hex (20 21 22 23 24 25 26 27) 
    (
        24
        7
        8
    ) 
    simpleGrading (1 1 5)
);

boundary
(
    atmosphere
    {
        type patch;
        faces
        (
            (24 25 26 27)
        );
    }
    inlet
    {
        type patch;
        faces
        (
            (1 2 6 5)
            (5 6 10 9)
            (9 10 14 13)
            (13 14 18 17)
            (17 18 22 21)
            (21 22 26 25)
        );
    }
    outlet
    {
        type patch;
        faces
        (
            (0 4 7 3)
            (4 8 11 7)
            (8 12 15 11)
            (12 16 19 15)
            (16 20 23 19)
            (20 24 27 23)
        );
    }
    bottom
    {
        type symmetryPlane;
        faces
        (
            (0 3 2 1)
        );
    }
    side
    {
        type symmetryPlane;
        faces
        (
            (0 1 5 4)
            (4 5 9 8)
            (8 9 13 12)
            (12 13 17 16)
            (16 17 21 20)
            (20 21 25 24)
        );
    }
     midPlane
     {
         type symmetryPlane;
         faces
         (
             (3 7 6 2)
             (7 11 10 6)
             (11 15 14 10)
             (15 19 18 14)
             (19 23 22 18)
             (23 27 26 22)
         );
     }
);


// ************************************************************************* //
