/*--------------------------------*- C++ -*----------------------------------*  =========                 |
  \      /  F ield         | OpenFOAM: The Open Source CFD Toolbox
   \    /   O peration     | Website:  https://openfoam.org
    \  /    A nd           | Version:  12
     \/     M anipulation  |
*---------------------------------------------------------------------------*/
FoamFile
{
    format      ascii;
    class       dictionary;
    object      blockMeshDict;
}
// * * * * * * * * * * * * * * * * * * * * * * * * * * * * * * * * * * * * * //

convertToMeters 1;

backgroundMesh
{
    xMin     -16.626;
    xMax     13.301;
    yMin     -12.619;
    yMax     0.0;
    zMin     -16.0;
    zMid1    -1.0;
    zMid2     0.188;
    zMid3     0.244;
    zMid4     0.3;
    zMid5     1.6;
    zMax      3.167;

    /*xCells   42;
    yCells   19;

    zCells1  10;
    zCells2  8;
    zCells3  32;
    zCells4  48;
    zCells5  40;
    zCells6  8;
    */

    xCells   42;
    yCells   12;

    zCells1  36;
    zCells2  36;
    zCells3  4;
    zCells4  4;
    zCells5  36 * (40/50);
    zCells6  36 * (20/50);
}

vertices
(
    (-16.626 -12.619 -7.918) // 0
    (13.301 -12.619 -7.918) // 1
    (13.301 0.0 -7.918) // 2
    (-16.626 0.0 -7.918) // 3

    (-16.626 -12.619 -1.0) // 4
    (13.301 -12.619 -1.0) // 5
    (13.301 0.0 -1.0) // 6
    (-16.626 0.0 -1.0) // 7

    (-16.626 -12.619 0.188) // 8
    (13.301 -12.619 0.188) // 9
    (13.301 0.0 0.188) // 10
    (-16.626 0.0 0.188) // 11

    (-16.626 -12.619 0.244) // 12
    (13.301 -12.619 0.244) // 13
    (13.301 0.0 0.244) // 14
    (-16.626 0.0 0.244) // 15

    (-16.626 -12.619 0.3) // 16
    (13.301 -12.619 0.3) // 17
    (13.301 0.0 0.3) // 18
    (-16.626 0.0 0.3) // 19

    (-16.626 -12.619 1.863) // 20
    (13.301 -12.619 1.863) // 21
    (13.301 0.0 1.863) // 22
    (-16.626 0.0 1.863) // 23

    (-16.626 -12.619 3.167) // 24
    (13.301 -12.619 3.167) // 25
    (13.301 0.0 3.167) // 26
    (-16.626 0.0 3.167) // 27

);

blocks
(
    // Block 1
    hex (0 1 2 3 4 5 6 7) 
    (
        42
        12
        36
    ) 
    simpleGrading (1 1 0.05)
    
    // Block 2
    hex (4 5 6 7 8 9 10 11) 
    (
        42
        12
        36
    ) 
    simpleGrading (1 1 1)
    
    // Block 3
    hex (8 9 10 11 12 13 14 15) 
    (
        42
        12
        2
    ) 
    simpleGrading (1 1 1)
    
    // Block 4
    hex (12 13 14 15 16 17 18 19) 
    (
        42
        12
        2
    ) 
    simpleGrading (1 1 1)
    
    // Block 6
    hex (16 17 18 19 20 21 22 23) 
    (
        42
        12
        28
    ) 
    simpleGrading (1 1 1)
    
    // Block 7
    hex (20 21 22 23 24 25 26 27) 
    (
        42
        12
        14
    ) 
    simpleGrading (1 1 5)
);

boundary
(
    atmosphere
    {
        type patch;
        faces
        (
            (24 25 26 27)
        );
    }
    inlet
    {
        type patch;
        faces
        (
            (1 2 6 5)
            (5 6 10 9)
            (9 10 14 13)
            (13 14 18 17)
            (17 18 22 21)
            (21 22 26 25)
        );
    }
    outlet
    {
        type patch;
        faces
        (
            (0 4 7 3)
            (4 8 11 7)
            (8 12 15 11)
            (12 16 19 15)
            (16 20 23 19)
            (20 24 27 23)
        );
    }
    bottom
    {
        type symmetryPlane;
        faces
        (
            (0 3 2 1)
        );
    }
    side
    {
        type symmetryPlane;
        faces
        (
            (0 1 5 4)
            (4 5 9 8)
            (8 9 13 12)
            (12 13 17 16)
            (16 17 21 20)
            (20 21 25 24)
        );
    }
     midPlane
     {
         type symmetryPlane;
         faces
         (
             (3 7 6 2)
             (7 11 10 6)
             (11 15 14 10)
             (15 19 18 14)
             (19 23 22 18)
             (23 27 26 22)
         );
     }
);


// ************************************************************************* //
